outputs/ieee_57_barras/network/ieee_57_barras_base.pwf
TITU
VALIDACAO IEEE 30 - MODELAGEM VIA TAP CHANGER
DBAR
(Num)OETGb(    nome    )Gl( V)( A)( Pg)( Qg)( Qn)( Qm)(Bc  )( Pl)( Ql)
    0 L2 A1            1040   0.0  480.0  129.8 -140.0  200.0    0.0   55.0   17.0
    1 L1 A2            1010  -1.2    0.0   -0.7  -17.0   50.0    0.0    3.0   88.0
    2 L1 A3             985  -6.0   40.0    3.1  -10.0   60.0    0.0   41.0   21.0
    3 L  A4             980  -7.4    0.0    0.0    0.0    0.0    0.0    0.0    0.0
    4 L  A5             976  -8.7    0.0    0.0    0.0    0.0    0.0   13.0    4.0
    5 L1 A6             979  -8.8    0.0    5.4   -8.0   25.0    0.0   75.0    2.0
    6 L  A7             980  -7.8    0.0    0.0    0.0    0.0    0.0    0.0    0.0
    7 L1 A8            1004  -4.6  450.0   67.2 -140.0  200.0    0.0  150.0   22.0
    8 L1 A9             980  -9.6    0.0   -0.2   -3.0    9.0    0.0  121.0   26.0
    9 L  A10            981 -11.6    0.0    0.0    0.0    0.0    0.0    5.0    2.0
   10 L  A11            972 -10.3    0.0    0.0    0.0    0.0    0.0    0.0    0.0
   11 L1 A12           1014 -10.5  310.0  124.4 -150.0  155.0    0.0  377.0   24.0
   12 L  A13            983  -9.8    0.0    0.0    0.0    0.0    0.0   18.0    2.3
   13 L  A14            976  -9.3    0.0    0.0    0.0    0.0    0.0   10.5    5.3
   14 L  A15            986  -7.2    0.0    0.0    0.0    0.0    0.0   22.0    5.0
   15 L  A16           1013  -8.9    0.0    0.0    0.0    0.0    0.0   43.0    3.0
   16 L  A17           1017  -5.4    0.0    0.0    0.0    0.0    0.0   42.0    8.0
   17 L  A18            943 -12.2    0.0    0.0    0.0    0.0   10.0   27.2    9.8
   18 L  A19            900 -13.9    0.0    0.0    0.0    0.0    0.0    3.3    0.6
   19 L  A20            886 -14.1    0.0    0.0    0.0    0.0    0.0    2.3    1.0
   20 L  A21            845 -13.9    0.0    0.0    0.0    0.0    0.0    0.0    0.0
   21 L  A22            844 -13.8    0.0    0.0    0.0    0.0    0.0    0.0    0.0
   22 L  A23            842 -13.9    0.0    0.0    0.0    0.0    0.0    6.3    2.1
   23 L  A24            829 -14.2    0.0    0.0    0.0    0.0    0.0    0.0    0.0
   24 L  A25            790 -21.4    0.0    0.0    0.0    0.0    5.9    6.3    3.2
   25 L  A26            867 -13.8    0.0    0.0    0.0    0.0    0.0    0.0    0.0
   26 L  A27            899 -12.2    0.0    0.0    0.0    0.0    0.0    9.3    0.5
   27 L  A28            919 -11.0    0.0    0.0    0.0    0.0    0.0    4.6    2.3
   28 L  A29            935 -10.3    0.0    0.0    0.0    0.0    0.0   17.0    2.6
   29 L  A30            764 -22.3    0.0    0.0    0.0    0.0    0.0    3.6    1.8
   30 L  A31            728 -23.3    0.0    0.0    0.0    0.0    0.0    5.8    2.9
   31 L  A32            741 -22.0    0.0    0.0    0.0    0.0    0.0    1.6    0.8
   32 L  A33            738 -22.1    0.0    0.0    0.0    0.0    0.0    3.8    1.9
   33 L  A34            799 -15.8    0.0    0.0    0.0    0.0    0.0    0.0    0.0
   34 L  A35            807 -15.5    0.0    0.0    0.0    0.0    0.0    6.0    3.0
   35 L  A36            818 -15.1    0.0    0.0    0.0    0.0    0.0    0.0    0.0
   36 L  A37            826 -14.8    0.0    0.0    0.0    0.0    0.0    0.0    0.0
   37 L  A38            848 -13.6    0.0    0.0    0.0    0.0    0.0   14.0    7.0
   38 L  A39            825 -14.9    0.0    0.0    0.0    0.0    0.0    0.0    0.0
   39 L  A40            819 -15.3    0.0    0.0    0.0    0.0    0.0    0.0    0.0
   40 L  A41            877 -15.4    0.0    0.0    0.0    0.0    0.0    6.3    3.0
   41 L  A42            824 -17.0    0.0    0.0    0.0    0.0    0.0    7.1    4.4
   42 L  A43            915 -11.7    0.0    0.0    0.0    0.0    0.0    2.0    1.0
   43 L  A44            867 -12.7    0.0    0.0    0.0    0.0    0.0   12.0    1.8
   44 L  A45            921  -9.8    0.0    0.0    0.0    0.0    0.0    0.0    0.0
   45 L  A46            872 -11.1    0.0    0.0    0.0    0.0    0.0    0.0    0.0
   46 L  A47            853 -13.0    0.0    0.0    0.0    0.0    0.0   29.7   11.6
   47 L  A48            852 -13.2    0.0    0.0    0.0    0.0    0.0    0.0    0.0
   48 L  A49            856 -13.3    0.0    0.0    0.0    0.0    0.0   18.0    8.5
   49 L  A50            850 -14.0    0.0    0.0    0.0    0.0    0.0   21.0   10.5
   50 L  A51            901 -12.9    0.0    0.0    0.0    0.0    0.0   18.0    5.3
   51 L  A52            889 -12.1    0.0    0.0    0.0    0.0    0.0    4.9    2.2
   52 L  A53            872 -12.9    0.0    0.0    0.0    0.0    6.3   20.0   10.0
   53 L  A54            887 -12.1    0.0    0.0    0.0    0.0    0.0    4.1    1.4
   54 L  A55            913 -10.9    0.0    0.0    0.0    0.0    0.0    6.8    3.4
   55 L  A56            808 -17.2    0.0    0.0    0.0    0.0    0.0    7.6    2.2
   56 L  A57            795 -17.9    0.0    0.0    0.0    0.0    0.0    6.7    2.0
DLIN
(De )d O d(Pa )NcEP ( R% )( X% )(Mvar)(Tap)(Tmn)(Tmx)(Phs)(Bc  )(Cn)(Ce)Ns
    0     1   1        0.83   2.80  12.90
    1     2   1        2.98   8.50   8.18
    2     3   1        1.12   3.66   3.80
    3     4   1        6.25  13.20   2.58
    3     5   1        4.30  14.80   3.48
    5     6   1        2.00  10.20   2.76
    5     7   1        3.39  17.30   4.70
    7     8   1        0.99   5.05   5.48
    8     9   1        3.69  16.79   4.40
    8    10   1        2.58   8.48   2.18
    8    11   1        6.48  29.50   7.72
    8    12   1        4.81  15.80   4.06
   12    13   1        1.32   4.34   1.10
   12    14   1        2.69   8.69   2.30
    0    14   1        1.78   9.10   9.88
    0    15   1        4.54  20.60   5.46
    0    16   1        2.38  10.80   2.86
    2    14   1        1.62   5.30   5.44
    4     5   1        3.02   6.41   1.24
    6     7   1        1.39   7.12   1.94
    9    11   1        2.77  12.62   3.28
   10    12   1        2.23   7.32   1.88
   11    12   1        1.78   5.80   6.04
   11    15   1        1.80   8.13   2.16
   11    16   1        3.97  17.90   4.76
   13    14   1        1.71   5.47   1.48
   17    18   1       46.10  68.50   0.00
   18    19   1       28.30  43.40   0.00
   20    21   1        7.36  11.70   0.00
   21    22   1        0.99   1.52   0.00
   22    23   1       16.60  25.60   0.84
   25    26   1       16.50  25.40   0.00
   26    27   1        6.18   9.54   0.00
   27    28   1        4.18   5.87   0.00
   24    29   1       13.50  20.20   0.00
   29    30   1       32.60  49.70   0.00
   30    31   1       50.70  75.50   0.00
   31    32   1        3.92   3.60   0.00
   33    34   1        5.20   7.80   0.32
   34    35   1        4.30   5.37   0.16
   35    36   1        2.90   3.66   0.00
   36    37   1        6.51  10.09   0.20
   36    38   1        2.39   3.79   0.00
   35    39   1        3.00   4.66   0.00
   21    37   1        1.92   2.95   0.00
   40    41   1       20.70  35.20   0.00
   40    42   1        0.00  41.20   0.00
   37    43   1        2.89   5.85   0.20
   45    46   1        2.30   6.80   0.32
   46    47   1        1.82   2.33   0.00
   47    48   1        8.34  12.90   0.48
   48    49   1        8.01  12.80   0.00
   49    50   1       13.86  22.00   0.00
   28    51   1       14.42  18.70   0.00
   51    52   1        7.62   9.84   0.00
   52    53   1       18.78  23.20   0.00
   53    54   1       17.32  22.65   0.00
   43    44   1        6.24  12.42   0.40
   55    40   1       55.30  54.90   0.00
   55    41   1       21.25  35.40   0.00
   56    55   1       17.40  26.00   0.00
   37    48   1       11.50  17.70   0.30
   37    47   1        3.12   4.82   0.00
   17     3   1        0.00 5494.50   0.00  0.970
   17     3   1        0.00 4257.00   0.00  0.978
   19    20   1        0.00 7689.33   0.00  1.043
   24    23   1        0.00 11701.80   0.00  1.000
   24    23   1        0.00 12177.00   0.00  1.000
   25    23   1        0.00 468.27   0.00  1.043
   28     6   1        0.00 641.52   0.00  0.967
   31    33   1        0.00 9434.70   0.00  0.975
   40    10   1        0.00 7415.10   0.00  0.955
   44    14   1        0.00 1031.58   0.00  0.955
   45    13   1        0.00 727.65   0.00  0.900
   50     9   1        0.00 704.88   0.00  0.930
   48    12   1        0.00 1890.90   0.00  0.895
   42    10   1        0.00 1514.70   0.00  0.958
   55    39   1        0.00 11830.50   0.00  0.958
   56    38   1        0.00 13414.50   0.00  0.980
   54     8   1        0.00 1192.95   0.00  0.940
99999
FIM
